Version 4
SHEET 1 880 1040
WIRE 176 368 112 368
WIRE 240 368 176 368
WIRE -112 400 -112 384
WIRE -112 400 -176 400
WIRE -112 416 -112 400
WIRE 176 416 176 368
WIRE -176 432 -176 400
WIRE -432 608 -576 608
WIRE -448 672 -496 672
WIRE -544 720 -576 720
WIRE -448 720 -448 672
WIRE -448 720 -464 720
WIRE -432 720 -432 608
WIRE -432 720 -448 720
WIRE 96 768 32 768
WIRE 304 800 288 800
WIRE 400 800 368 800
WIRE 96 864 96 768
WIRE 96 864 32 864
WIRE -32 880 -32 816
WIRE -32 880 -192 880
WIRE -32 896 -32 880
WIRE -32 896 -128 896
WIRE 96 896 96 864
WIRE 96 896 -32 896
WIRE 288 896 288 800
WIRE 288 896 160 896
WIRE 400 896 400 800
WIRE -128 912 -128 896
WIRE 160 912 160 896
WIRE 96 944 96 896
WIRE 96 944 48 944
WIRE 288 944 288 896
WIRE -192 960 -192 880
WIRE 48 960 48 944
WIRE -32 1008 -32 896
WIRE -32 1008 -128 1008
WIRE 160 1024 160 992
WIRE 288 1024 288 1008
FLAG -176 432 0
FLAG 160 1024 0
FLAG 288 1024 0
FLAG -112 304 +12V
IOPIN -112 304 In
FLAG -112 496 -12V
IOPIN -112 496 In
FLAG 176 416 0
FLAG 112 288 CV
IOPIN 112 288 In
FLAG 240 288 FM
IOPIN 240 288 In
FLAG -656 608 CV
IOPIN -656 608 In
FLAG -656 720 FM
IOPIN -656 720 In
FLAG 48 960 0
SYMBOL voltage -112 288 R0
SYMATTR InstName V1
SYMATTR Value 12
SYMBOL voltage -112 400 R0
SYMATTR InstName V2
SYMATTR Value -12
SYMBOL cap 272 944 R0
SYMATTR InstName C1
SYMATTR Value 2.2n
SYMBOL diode 368 784 R90
WINDOW 0 0 32 VBottom 2
WINDOW 3 32 32 VTop 2
SYMATTR InstName D1
SYMATTR Value 1N34A
SYMBOL res 144 896 R0
SYMATTR InstName R1
SYMATTR Value 500k
SYMBOL EXTRA/CD4000/CD40106B 336 848 R0
SYMATTR InstName U1
SYMATTR Value Rt=1000K set=.2.5
SYMATTR SpiceLine VDD=12  SPEED=1.0  TRIPDT=5e-9
SYMBOL voltage 112 272 R0
SYMATTR InstName V3
SYMATTR Value {CV}
SYMBOL voltage 240 272 R0
SYMATTR InstName V4
SYMATTR Value {FM}
SYMBOL pnp -192 1008 M180
SYMATTR InstName Q1
SYMATTR Value 2N3906
SYMBOL res -560 704 R90
WINDOW 0 -2 56 VBottom 2
WINDOW 3 32 56 VTop 2
SYMATTR InstName R2
SYMATTR Value 100k
SYMBOL res -560 592 R90
WINDOW 0 -2 56 VBottom 2
WINDOW 3 32 56 VTop 2
SYMATTR InstName R4
SYMATTR Value 100k
SYMBOL Pot&Sw/pot -560 736 R270
SYMATTR InstName U2
SYMATTR Value Rt=1000K set=.5
SYMBOL npn -32 768 R0
SYMATTR InstName Q2
SYMATTR Value BC548B
TEXT -120 152 Left 2 !.params CV=5 FM=2\n.tran 0.025s
