Version 4
SHEET 1 1172 2484
WIRE 80 -560 80 -640
WIRE -160 -512 -224 -512
WIRE 16 -512 -80 -512
WIRE 80 -416 80 -464
WIRE 80 -256 80 -336
WIRE 208 -256 80 -256
WIRE 208 -128 208 -192
WIRE 80 -112 80 -256
WIRE -160 -64 -160 -512
WIRE 16 -64 -80 -64
WIRE 80 64 80 -16
WIRE -512 288 -512 224
WIRE -512 416 -512 368
WIRE -512 416 -656 416
WIRE -656 432 -656 416
WIRE -512 464 -512 416
WIRE -688 864 -800 864
WIRE -544 864 -576 864
WIRE -464 864 -544 864
WIRE -448 864 -464 864
WIRE -240 864 -352 864
WIRE -240 896 -240 864
WIRE -240 1008 -240 976
WIRE -192 1008 -240 1008
WIRE -240 1040 -240 1008
WIRE -192 1088 -192 1008
WIRE -240 1184 -240 1120
WIRE -240 1184 -368 1184
WIRE -240 1216 -240 1184
WIRE -48 1216 -240 1216
WIRE 144 1216 64 1216
WIRE -544 1232 -544 864
WIRE -432 1232 -464 1232
WIRE -240 1344 -240 1280
WIRE -368 1424 -368 1280
WIRE -544 1552 -544 1232
WIRE 256 1552 256 1216
WIRE 256 1552 -544 1552
WIRE -800 1792 -912 1792
WIRE -656 1792 -688 1792
WIRE -576 1792 -656 1792
WIRE -560 1792 -576 1792
WIRE -352 1792 -464 1792
WIRE -352 1824 -352 1792
WIRE -352 1936 -352 1904
WIRE -304 1936 -352 1936
WIRE -352 1968 -352 1936
WIRE -304 2016 -304 1936
WIRE -352 2112 -352 2048
WIRE -352 2112 -480 2112
WIRE -352 2144 -352 2112
WIRE -160 2144 -352 2144
WIRE 32 2144 -48 2144
WIRE -656 2160 -656 1792
WIRE -544 2160 -576 2160
WIRE -352 2272 -352 2208
WIRE -480 2352 -480 2208
WIRE -656 2480 -656 2160
WIRE 144 2480 144 2144
WIRE 144 2480 -656 2480
FLAG -656 432 0
FLAG -544 -256 TRIGGER
IOPIN -544 -256 In
FLAG -544 -176 0
FLAG -224 -512 TRIGGER
IOPIN -224 -512 In
FLAG -512 224 +12
IOPIN -512 224 In
FLAG 80 -640 +12
IOPIN 80 -640 In
FLAG 208 -128 0
FLAG 80 64 0
FLAG -800 864 TRIGGER
IOPIN -800 864 In
FLAG -816 -288 AMAX
IOPIN -816 -288 In
FLAG -816 -208 0
FLAG -832 96 VSS
IOPIN -832 96 In
FLAG -832 176 0
FLAG -240 1344 0
FLAG -368 1424 0
FLAG 32 336 APEAK
IOPIN 32 336 In
FLAG 32 416 0
FLAG -912 1792 TRIGGER
IOPIN -912 1792 In
FLAG -352 2272 0
FLAG -480 2352 0
SYMBOL Hef4000/HEF40106B -640 800 R0
SYMATTR InstName DRAIN
SYMATTR SpiceModel AMAX VSS
SYMBOL voltage -544 -272 R0
SYMATTR InstName V1
SYMATTR Value PULSE(0 8v 1 0 0 1 2 4)
SYMBOL voltage -512 272 R0
SYMATTR InstName V2
SYMATTR Value 12V
SYMBOL voltage -512 560 R180
WINDOW 0 24 96 Left 2
WINDOW 3 24 16 Left 2
SYMATTR InstName V3
SYMATTR Value -12V
SYMBOL res -176 -496 R270
WINDOW 0 32 56 VTop 2
WINDOW 3 -2 56 VBottom 2
SYMATTR InstName R1
SYMATTR Value 4.7
SYMBOL npn 16 -560 R0
SYMATTR InstName Q1
SYMATTR Value 2N2222A
SYMBOL res 64 -432 R0
SYMATTR InstName R3
SYMATTR Value 1k
SYMBOL polcap 192 -256 R0
SYMATTR InstName C1
SYMATTR Value 4.7µ
SYMBOL pnp 16 -112 R0
SYMATTR InstName Q2
SYMATTR Value 2N2907
SYMBOL res -176 -48 R270
WINDOW 0 32 56 VTop 2
WINDOW 3 -2 56 VBottom 2
SYMATTR InstName R4
SYMATTR Value 4.7
SYMBOL voltage -816 -304 R0
SYMATTR InstName V4
SYMATTR Value 8V
SYMBOL voltage -832 80 R0
SYMATTR InstName V5
SYMATTR Value 0v
SYMBOL polcap -256 1216 R0
SYMATTR InstName C2
SYMATTR Value 4.7µ
SYMBOL Hef4000/HEF40106B -416 800 R0
SYMATTR InstName FILL
SYMATTR SpiceModel AMAX VSS
SYMBOL res -256 880 R0
SYMATTR InstName R2
SYMATTR Value 1k
SYMBOL npn -432 1184 R0
SYMATTR InstName Q3
SYMATTR Value 2N2222A
SYMBOL res -560 1248 R270
WINDOW 0 32 56 VTop 2
WINDOW 3 -2 56 VBottom 2
SYMATTR InstName R6
SYMATTR Value 4.7k
SYMBOL Pot&Sw/potentiometer -256 1024 R0
SYMATTR InstName U3
SYMATTR Value Rt=100K set=0.5
SYMBOL Hef4000/HEF40106B 0 1152 R0
SYMATTR InstName PEAK_DETECT
SYMATTR SpiceModel APEAK VSS
SYMBOL voltage 32 320 R0
SYMATTR InstName V6
SYMATTR Value 12V
SYMBOL Hef4000/HEF40106B 192 1152 R0
SYMATTR InstName PEAK_DETECT1
SYMATTR SpiceModel APEAK VSS
SYMBOL Hef4000/HEF40106B -752 1728 R0
SYMATTR InstName DRAIN1
SYMATTR SpiceModel AMAX VSS
SYMBOL polcap -368 2144 R0
SYMATTR InstName C3
SYMATTR Value 4.7µ
SYMBOL Hef4000/HEF40106B -528 1728 R0
SYMATTR InstName FILL1
SYMATTR SpiceModel AMAX VSS
SYMBOL res -368 1808 R0
SYMATTR InstName R5
SYMATTR Value 1k
SYMBOL npn -544 2112 R0
SYMATTR InstName Q4
SYMATTR Value 2N2222A
SYMBOL res -672 2176 R270
WINDOW 0 32 56 VTop 2
WINDOW 3 -2 56 VBottom 2
SYMATTR InstName R7
SYMATTR Value 4.7k
SYMBOL Pot&Sw/potentiometer -368 1952 R0
SYMATTR InstName U1
SYMATTR Value Rt=100K set=0.5
SYMBOL Hef4000/HEF40106B -112 2080 R0
SYMATTR InstName PEAK_DETECT2
SYMATTR SpiceModel APEAK VSS
SYMBOL Hef4000/HEF40106B 80 2080 R0
SYMATTR InstName PEAK_DETECT3
SYMATTR SpiceModel APEAK VSS
TEXT -520 -128 Left 2 !.tran 3s
